T0	COUNTRY 0 5	Китай
T1	ORDINAL 19 25	первый
T2	FAC 26 40	электросамолет
T3	COUNTRY 44 49	Китае
T4	PROFESSION 59 72	испытательный
T5	GROUP 59 72	испытательный
T6	EVENT 59 72	испытательный
T7	FAC 79 100	электрический самолет
T8	ORGANIZATION 101 106	AG60E
T9	FAC 108 121	электрическая
T10	CARDINAL 137 149	двухместного
T11	ORGANIZATION 150 154	AG60
T12	ORGANIZATION 176 190	China Aviation
T13	ORGANIZATION 200 228	General Aircraft Corporation
T14	NEWS_SOURCE 217 228	Corporation
T15	NEWS_SOURCE 230 243	передает CGTN
T16	ORGANIZATION 239 243	CGTN
T17	ECONOMIC_SECTOR 285 304	гражданской авиации
T18	FAC 285 304	гражданской авиации
T19	CITY 305 314	Цяньдаоху
T20	CITY 317 324	Цзяньде
T21	CITY 332 339	Ханчжоу
T22	ORGANIZATION 347 352	AG60E
T23	CARDINAL 355 356	6
T24	CARDINAL 357 358	9
T25	CARDINAL 379 380	8
T26	CARDINAL 381 382	6
T27	CARDINAL 422 428	185 км
T28	ORGANIZATION 432 445	Производитель
T29	PRODUCT 487 496	самолетов
T30	FAC 487 496	самолетов
T31	FAC 572 594	стратегической отрасли
T32	FAC 610 618	самолеты
T33	ECONOMIC_SECTOR 655 662	авиации
T34	NEWS_SOURCE 692 719	отмечает The New York Times
T35	ORGANIZATION 701 719	The New York Times
T36	ECONOMIC_SECTOR 756 777	сфере аккумуляторов и
T37	GROUP 778 784	других
T38	GROUP 795 801	частей
T39	CARDINAL 811 823	миллиардными
T40	GROUP 824 836	инвестициями
T41	ECONOMIC_SECTOR 866 872	полеты
T42	PRODUCT 873 897	на электрической авиации
T43	FAC 900 922	Электрические самолеты
T44	FAC 1038 1049	вертолетами
T45	FAC 1052 1062	самолетами
T46	FAC 1097 1112	электросамолеты
T47	LOCATION 1175 1185	расстояния
T48	ECONOMIC_SECTOR 1257 1281	автомобильной индустрией
T49	DATE 1282 1298	в начале XX века
T50	PROFESSION 1308 1340	управляющий директор авиационной
T51	ORGANIZATION 1356 1385	компании AeroDynamic Advisory
T52	PROFESSION 1377 1385	Advisory
T53	PERSON 1386 1398	Кевин Майклс
T54	NEWS_SOURCE 1400 1410	Он пояснил
T55	NEWS_SOURCE 1416 1421	тогда
T56	CARDINAL 1434 1449	несколько сотен
T57	GROUP 1450 1464	производителей
T58	FAC 1512 1518	дороги
T59	FAC 1520 1529	светофоры
T60	DATE 1594 1607	20 лет спустя
T61	CARDINAL 1782 1786	2024
T62	CARDINAL 1787 1811	6597b9009a794785aef633a7
T63	DATE 1821 1824	Jan
T64	CARDINAL 1825 1829	2024
T65	CARDINAL 1833 1835	54
